**
*HEADING
L=1000mm, dia=386mm, T=14mm, fin length=280mm Py=275N/mm2 Moment=1kNm Axial = 2801.23251 kN 36x50 mesh (circ x length)
**
**
** Define Nodal Coordinates
** ------------------------
**
**
*NODE, NSET=END1
1, 193.0, 0.0, 0.0
2, 192.3, 16.8, 0.0
3, 190.1, 33.5, 0.0
4, 186.4, 50.0, 0.0
5, 181.4, 66.0, 0.0
6, 174.9, 81.6, 0.0
7, 167.1, 96.5, 0.0
8, 158.1, 110.7, 0.0
9, 147.8, 124.1, 0.0
10, 136.5, 136.5, 0.0
11, 124.1, 147.8, 0.0
12, 110.7, 158.1, 0.0
13, 96.5, 167.1, 0.0
14, 81.6, 174.9, 0.0
15, 66.0, 181.4, 0.0
16, 50.0, 186.4, 0.0
17, 33.5, 190.1, 0.0
18, 16.8, 192.3, 0.0
19, -0.0, 193.0, 0.0
20, -16.8, 192.3, 0.0
** ... 52 like lines cut
*NODE, NSET=END2
10001, 193.0, 0.0, 1000.0
10002, 192.3, 16.8, 1000.0
10003, 190.1, 33.5, 1000.0
10004, 186.4, 50.0, 1000.0
10005, 181.4, 66.0, 1000.0
10006, 174.9, 81.6, 1000.0
10007, 167.1, 96.5, 1000.0
10008, 158.1, 110.7, 1000.0
10009, 147.8, 124.1, 1000.0
10010, 136.5, 136.5, 1000.0
10011, 124.1, 147.8, 1000.0
10012, 110.7, 158.1, 1000.0
10013, 96.5, 167.1, 1000.0
10014, 81.6, 174.9, 1000.0
10015, 66.0, 181.4, 1000.0
10016, 50.0, 186.4, 1000.0
10017, 33.5, 190.1, 1000.0
10018, 16.8, 192.3, 1000.0
10019, -0.0, 193.0, 1000.0
10020, -16.8, 192.3, 1000.0
** ... 52 like lines cut
**
**
*NODE
3601, 193, 0, 360
6401, 193, 0, 640
13601, 268, 0, 360
16401, 268, 0, 640
23601, 343, 0, 360
26401, 343, 0, 640
**
**
*NSET, NSET=MIDDLE, GENERATE
5001, 5072, 1
**
**
**
**
*NSET, NSET=MID
5001
**
**
*NSET, GENERATE, NSET=LINE1
3601, 23601, 10000
**
**
*NSET, GENERATE, NSET=LINE2
6401, 26401, 10000
**
**
*NFILL, NSET=FPLATE
LINE1, LINE2, 28, 100
**
**
*ELEMENT, TYPE=S9R5
100000, 3601, 23601, 23801, 3801, 13601, 23701, 13801, 3701, 13701
**
**
*ELGEN, ELSET=FIN
100000, 14, 200, 1, 1, 1, 1
**
**
*NFILL, NSET=TUBE
END1, END2, 100, 100
**
**
***********   GENERATE ELEMENTS   ************
**
**
*ELEMENT, TYPE=S9R5
1, 1, 3, 203, 201, 2, 103, 202, 101, 102
36, 71, 1, 201, 271, 72, 101, 272, 171, 172
**
**
*ELGEN, ELSET=CHS
1, 35, 2, 1, 50, 200, 100
36, 1, 1, 1, 50, 200, 100
**
**
***********   DEFINING PROPERTIES   ************
*SHELLSECTION, ELSET=CHS, MATERIAL=STEEL
14
*SHELLSECTION, ELSET=FIN, MATERIAL=RIGID
10
**
**
***********   DEFINING MATERIALS   ************
**
**
*MATERIAL, NAME=STEEL
*ELASTIC, TYPE=ISO
210000, 0.3, 0
*PLASTIC
275, 0
278.1, 0.0099
495.9, 0.1397
516.6, 0.1817
455.5, 0.2617
*EXPANSION, ZERO=0
0, 0
**
**
*MATERIAL, NAME=RIGID
*ELASTIC, TYPE=ISO
21000000, 0.3, 0
**
**
***********   BOUNDARIES & CONSTRAINTS   ************
**
**
*BOUNDARY
END1, 1, 2
END2, 1, 2
MIDDLE, 3, 3
MID, 1, 1
**
**
**
**
*EQUATION
2
1, 3, 1, 2, 3, -1
2
2, 3, 1, 3, 3, -1
2
3, 3, 1, 4, 3, -1
2
4, 3, 1, 5, 3, -1
2
5, 3, 1, 6, 3, -1
2
6, 3, 1, 7, 3, -1
2
7, 3, 1, 8, 3, -1
2
8, 3, 1, 9, 3, -1
2
9, 3, 1, 10, 3, -1
2
10, 3, 1, 11, 3, -1
** ... 264 like lines cut
**
**
***********   AXIAL LOADING    ************
**            axial=2801.232 kN
********************************************
*NSET, GENERATE, NSET=END2TWO
10001, 10071, 2
*NSET, GENERATE, NSET=END2FOUR
10002, 10072, 2
*NSET, GENERATE, NSET=END1TWO
1, 71, 2
*NSET, GENERATE, NSET=END1FOUR
2, 72, 2
**
**
*STEP, NLGEOM, AMPLITUDE=STEP
*STATIC
*CLOAD
END2TWO, 3, -25937.33
*CLOAD
END2FOUR, 3, -51874.66
*CLOAD
END1TWO, 3, 25937.33
*CLOAD
END1FOUR, 3, 51874.66
**
**
*RESTART, WRITE, FREQUENCY=1, OVERLAY
*MONITOR, DOF=2, NODE=3601
*EL PRINT, FREQUENCY=1
SF
S
*EL PRINT
MISES
*NODE PRINT, SUMMARY=NO, TOTALS=YES, FREQUENCY=1
*NODE PRINT
U
*END STEP
***********   MOMENT LOADING   ************
**           moment=1 kNm
*******************************************
*STEP, NLGEOM, INC=25
*STATIC, RIKS
0.1, 0.1, 0.0000001
**
**
*CLOAD, FOLLOWER
23601, 1, 3571
*CLOAD, FOLLOWER
26401, 1, -3571
**
**
*RESTART, WRITE, FREQUENCY=1, OVERLAY
*MONITOR, DOF=1, NODE=3601
*EL PRINT, FREQUENCY=1
SF
S
*EL PRINT
MISES
*NODE PRINT, SUMMARY=NO, TOTALS=YES, FREQUENCY=1
*NODE PRINT
U
*END STEP
**
**
***********   EOP   ************
**
**
